424
Exposed_atoms
C 20.382974 9.073997 7.117989
C 24.553997 24.367962 -3.033989
C 20.005031 13.726968 -14.727023
C 33.930036 -0.237018 13.544024
C 30.965042 7.250980 13.815980
C 36.331955 6.390983 6.640039
C 38.429996 4.085994 2.238038
C 22.894965 4.611005 -6.330020
C 26.909024 9.696023 -10.141993
C 21.483000 9.541013 -11.578047
C 23.119975 -0.105972 -9.964019
C 18.775050 9.733961 2.408959
C 20.855979 6.215984 8.025037
C 21.692971 4.034983 8.788039
C 24.189981 3.382036 9.822038
C 25.365040 4.924027 14.323955
C 21.617043 2.667987 14.728976
C 19.302010 8.957028 7.044030
C 27.026994 15.200019 7.891007
C 17.994976 13.168038 2.092041
C 21.766034 20.869031 -0.864966
C 22.879974 18.710997 3.060007
C 21.885009 19.788970 -2.643955
C 25.205967 18.931019 -5.555981
C 21.533010 15.450032 -14.174991
C 20.947008 11.315988 -9.903956
C 26.901044 12.776984 -11.999023
C 27.106013 22.225021 -5.375049
C 26.827037 20.450041 -4.106025
C 32.880004 16.031045 -9.874955
C 30.077976 8.050992 -11.125975
C 27.740025 7.085958 -10.895049
C 35.295987 9.401955 -8.236027
C 33.738021 14.172993 -10.125997
C 33.926988 15.514993 -8.134956
C 30.187998 16.206990 -1.555991
C 29.914991 18.356050 -3.628003
C 28.699009 16.440038 0.415046
C 29.235977 16.575970 8.668972
C 29.962050 17.327013 9.705011
C 32.636956 7.663990 12.699018
C 33.941040 9.980964 6.541962
C 39.276954 6.303031 10.089985
C 32.554983 4.349954 14.791992
C 35.702005 6.465983 12.895028
C 30.655000 -1.057965 14.485023
C 28.360005 2.334001 15.735002
C 36.119019 -0.139996 12.472043
C 35.896032 2.071010 5.382995
C 32.251033 2.091000 7.350004
C 29.869976 0.631047 6.788016
C 30.422047 6.405977 -8.558042
C 36.530994 4.848961 0.452969
C 33.209047 3.682000 1.838965
C 32.312950 2.217959 -4.085003
C 32.262021 1.339011 -2.262995
C 21.045959 0.349955 -11.524003
C 21.882980 -0.281985 -11.733973
C 21.820980 1.864955 -11.054042
C 21.699044 -1.652998 -11.140008
C 20.011011 4.596003 -8.260990
C 20.053982 5.625048 -8.611984
C 21.775994 4.418990 -12.113027
C 20.576038 5.700965 -10.042987
C 20.089980 5.014971 -10.727021
C 19.099985 6.124043 -8.555011
C 16.896951 8.856963 -7.584027
C 16.985013 7.826014 -7.315962
C 16.204005 9.016037 -8.386023
C 18.531020 9.305013 -8.885975
C 21.969954 9.249042 -10.618007
C 21.751992 7.847969 -10.372973
C 20.606049 7.178007 -10.432019
C 19.595035 7.768009 -10.819970
C 24.971956 6.315044 -11.815990
C 24.671964 4.739043 -10.226030
C 22.992046 9.579037 -10.729968
C 25.689983 6.498999 -8.244048
C 31.351031 3.332968 -3.911034
C 25.108020 5.883020 -10.664989
C 24.244004 3.767950 -11.950979
C 23.032007 1.821955 -12.263977
C 23.994998 -0.194031 -11.473978
C 22.159984 -0.401980 -12.753000
C 23.583955 2.461027 -9.286011
C 23.133981 0.220022 -10.987015
C 24.903955 2.072020 -10.312996
C 25.252049 5.816986 -5.749037
C 25.146970 5.126960 -2.682993
C 25.378005 4.633985 -3.593999
C 23.537038 4.203972 -7.312986
C 23.691036 5.456983 -0.799977
C 24.024022 4.779980 -1.963021
C 23.411009 3.987023 -2.299012
C 27.075038 3.186036 -0.050956
C 26.185017 3.227047 -0.191002
C 27.381048 3.649006 -2.144983
C 26.818032 7.621028 -5.131964
C 19.517042 8.874044 -1.127985
C 16.567012 9.316010 -6.642028
C 18.690045 7.660965 -3.311035
C 19.623031 7.119050 -3.183005
C 19.931035 6.371995 -1.112996
C 20.353964 7.087012 -1.858043
C 19.594046 5.766982 -3.852960
C 21.966022 3.903013 -5.800009
C 22.865981 5.192025 -0.228024
C 20.395040 4.866982 -3.653001
C 18.531022 5.618044 -4.678006
C 21.922951 3.398999 7.220010
C 22.263971 3.291036 8.258040
C 21.858978 2.298994 8.478022
C 20.411030 5.657024 9.580040
C 22.612979 4.388007 3.917984
C 21.400990 5.427996 2.075975
C 23.206967 5.274956 4.059957
C 23.922951 4.477014 6.205049
C 24.659956 3.891013 3.280979
C 26.642002 4.135966 4.598959
C 27.437994 2.371011 0.554964
C 25.214978 3.495043 10.079987
C 24.145041 2.394041 7.766973
C 24.096022 2.200966 13.028012
C 23.670980 2.770957 10.507995
C 26.836008 3.476010 13.402031
C 27.328961 1.955954 16.298967
C 27.004973 4.610017 16.374976
C 23.529009 2.682046 13.789983
C 24.161981 2.597034 14.652036
C 22.508976 1.195985 14.762043
C 22.355966 0.586042 12.619973
C 21.701951 1.585975 12.894047
C 20.969992 0.717022 10.868043
C 20.864044 1.665044 11.854029
C 19.924022 2.627970 11.720980
C 22.243033 2.044965 14.155981
C 22.445971 4.306008 12.740040
C 22.565996 4.455973 14.456002
C 23.100012 6.914031 13.430999
C 20.478001 7.842993 9.308028
C 19.391951 7.699980 9.201953
C 23.050021 8.865981 9.853960
C 20.954019 9.048970 8.496004
C 20.630982 8.037991 10.370048
C 23.999983 8.847049 12.188007
C 25.953989 9.414034 13.776981
C 27.103960 6.681019 15.366973
C 20.403993 7.933979 1.102952
C 22.506044 6.455986 3.618959
C 21.589974 6.489048 2.656003
C 18.806983 7.215954 3.347973
C 18.605019 9.634019 4.256032
C 19.240035 9.472962 3.369023
C 19.072968 11.749023 0.247020
C 20.311987 13.585958 2.819043
C 19.794022 14.988009 0.280951
C 21.657003 13.359027 2.655972
C 25.902033 12.788984 7.041960
C 27.300994 12.495958 8.435966
C 25.973952 10.524965 11.176039
C 25.331032 10.601965 10.285997
C 20.852047 10.028010 8.951952
C 20.640951 9.847017 6.405987
C 19.987954 10.264046 3.584970
C 24.058019 11.424984 5.817990
C 22.395978 13.820970 3.302015
C 19.976972 14.203007 3.641982
C 23.078026 11.155962 8.054954
C 25.458005 14.851047 5.821987
C 25.492973 11.179030 11.921033
C 23.386002 16.225988 5.649036
C 22.206027 16.804009 3.573985
C 19.413980 18.784003 1.211954
C 23.821953 19.258035 2.193014
C 19.911982 20.253006 2.201969
C 22.965009 19.264041 4.003984
C 25.404041 16.946010 7.221960
C 26.188035 16.720049 6.511990
C 27.134985 17.420049 9.101044
C 26.586987 17.609048 5.989970
C 26.759039 20.571974 1.374973
C 26.653985 15.522953 4.326001
C 26.387959 20.193036 -1.435004
C 22.359982 21.702026 -1.159020
C 25.533019 23.348032 -1.270967
C 22.359966 20.677011 0.078974
C 21.889034 17.263959 -1.204036
C 19.800026 15.524042 -1.385045
C 19.991045 15.848979 -0.355981
C 19.318956 16.642020 -0.038010
C 19.918954 19.893970 0.994006
C 20.001032 21.722033 0.046976
C 20.366980 20.736959 -0.178984
C 19.802958 20.281037 -0.975958
C 20.574041 16.200954 -5.321977
C 22.275042 18.122974 -5.116960
C 22.459994 17.460990 -6.769966
C 22.480969 17.237048 -5.691996
C 19.852982 15.441032 -8.107966
C 20.895969 15.480971 -8.151993
C 21.505981 16.358049 -8.341028
C 18.453978 16.575971 -13.972960
C 23.532018 16.178978 -13.038002
C 23.651011 17.180016 -13.335987
C 19.977955 17.245015 -14.640042
C 19.336970 16.385031 -14.585033
C 18.939007 16.200003 -15.585950
C 20.058025 15.147988 -14.142971
C 23.890042 15.539036 -13.849040
C 25.286007 15.904997 -11.139038
C 21.982043 15.948018 -12.989975
C 21.139037 16.111998 -12.036039
C 17.112025 11.416966 -7.289006
C 18.381045 11.675014 -8.463968
C 21.242995 14.908023 -9.045969
C 20.352044 13.531034 -15.922023
C 19.959999 14.987007 -13.049983
C 19.664966 12.820972 -13.923006
C 16.836961 10.957030 -9.046965
C 27.160984 12.963005 -14.254963
C 17.547976 11.015028 -8.232014
C 18.858030 10.134034 -5.976958
C 21.288954 11.132993 -5.120995
C 19.639007 10.650958 -2.961026
C 21.141013 12.921971 -3.347966
C 20.310990 11.468002 -7.251966
C 21.684021 14.672955 -6.751973
C 24.838989 11.085031 -10.792967
C 25.253976 17.713961 -7.432041
C 24.141045 15.734954 -11.765978
C 26.220008 16.539975 -11.583965
C 26.671973 22.362010 -6.390033
C 25.631050 20.419006 -6.895965
C 24.864996 17.908954 -6.258954
C 25.498999 23.573954 -5.079970
C 27.053007 24.241993 -5.071972
C 26.493994 23.431014 -4.716020
C 25.336043 21.263992 -4.674958
C 25.535953 23.635033 -2.543042
C 24.136981 19.729975 -3.053043
C 26.502977 23.143009 -3.307981
C 31.758988 16.514007 -3.853030
C 31.252006 16.616971 -4.793958
C 30.069044 18.613050 -6.257962
C 31.801034 17.151973 -5.610048
C 29.359999 16.811037 -7.018976
C 28.118996 22.368006 -5.525001
C 28.104990 19.893996 -7.378985
C 30.323021 16.752958 -7.836028
C 32.230951 15.280982 -13.143008
C 32.192007 15.562983 -11.115046
C 30.182033 14.438035 -12.437003
C 32.184047 14.696993 -11.772030
C 30.796991 14.065016 -11.624953
C 30.392018 14.427991 -10.696956
C 31.369026 12.359014 -12.799953
C 28.941998 12.335030 -12.945034
C 27.669967 12.695973 -13.050002
C 29.607963 12.015998 -11.694032
C 29.656002 10.965003 -11.481965
C 29.689986 8.279042 -7.115985
C 35.465986 10.210015 -7.174040
C 39.445964 9.734006 -3.428029
C 35.472980 8.781004 -5.789015
C 37.455011 8.626049 -10.131998
C 34.812034 8.288005 -8.259986
C 36.712047 9.157978 -12.734968
C 37.124001 9.634028 -10.244040
C 37.083009 11.140994 -12.174031
C 36.967995 9.957018 -11.773044
C 35.758031 15.036014 -5.064959
C 37.979958 10.244962 -10.069967
C 34.101991 13.069974 -12.065954
C 35.789978 11.466034 -9.465980
C 35.676010 14.151953 -9.928009
C 33.437955 13.890022 -11.387025
C 34.490989 16.302986 -8.682033
C 35.762992 14.516967 -7.634971
C 36.680002 12.698964 -5.369975
C 35.276019 14.179963 -4.763988
C 33.695001 15.872962 -7.329958
C 33.588017 15.411018 -4.093049
C 33.248981 13.320964 -3.826026
C 39.486016 11.979004 -3.941956
C 33.998012 14.423011 -4.228985
C 37.372968 13.008965 -2.423042
C 37.957035 12.565047 -1.588017
C 38.644999 13.283028 -1.255959
C 37.354999 11.538019 0.099036
C 38.393021 11.235033 -1.971966
C 39.092009 10.992988 -3.113982
C 35.553994 11.796989 -0.959969
C 34.712038 12.167986 0.949968
C 36.981029 13.024984 0.220974
C 36.917988 12.264963 -0.567978
C 35.017030 12.457999 -1.640017
C 29.615049 15.423957 -1.249986
C 28.752047 15.525049 -0.138024
C 32.598967 12.400959 -0.162049
C 28.654967 19.194969 1.019979
C 28.203019 15.915959 6.737023
C 28.527022 14.888966 2.741047
C 27.499013 19.673994 0.971997
C 28.122047 17.991010 7.797993
C 27.843027 17.080963 8.391048
C 28.879960 12.929993 10.035950
C 30.374017 13.253034 2.640003
C 29.805026 16.640024 7.728037
C 29.353006 11.222959 5.156971
C 34.528005 10.829014 6.846017
C 29.527963 12.120032 7.954017
C 33.154976 9.773988 7.271022
C 33.198049 9.064018 9.803039
C 36.686986 9.115028 5.137013
C 33.455980 10.198012 5.563034
C 35.456004 8.280012 7.529984
C 34.828037 8.253956 12.105046
C 33.098033 8.623989 13.379979
C 30.942973 10.288972 10.353042
C 28.534995 10.190974 12.656040
C 28.148042 9.275978 13.084026
C 28.455010 8.951982 14.097970
C 30.096988 10.342043 4.769981
C 34.782032 9.775014 2.026028
C 36.456025 8.823041 2.962036
C 31.523045 10.823013 3.352012
C 33.937995 10.500966 2.637975
C 37.408973 6.484993 2.375981
C 35.455999 8.548955 2.637969
C 35.594028 7.443002 0.754955
C 38.127039 5.322035 8.010997
C 37.857981 7.740997 8.595044
C 38.016000 5.636991 10.980977
C 39.804955 4.035013 11.371039
C 39.107044 4.165989 10.097963
C 39.633033 4.052014 9.206972
C 36.341033 7.375027 10.041984
C 36.187024 7.227012 7.519955
C 27.988000 6.044956 15.277020
C 27.518964 4.598015 15.453977
C 28.537952 3.554964 15.338973
C 28.805001 6.349976 15.920008
C 35.375971 6.693984 13.913967
C 36.717045 6.781970 12.718997
C 35.719012 4.684017 12.826983
C 40.589969 3.031952 11.775015
C 41.144041 3.104956 12.986996
C 34.877040 4.044010 14.559954
C 33.175987 3.791953 14.086958
C 33.223964 1.847986 14.827021
C 31.836026 -3.309037 14.214967
C 31.823950 0.190031 16.751030
C 32.768957 -2.717025 15.927967
C 32.296028 -2.169981 15.135952
C 30.313956 -2.379036 15.589996
C 30.934014 -0.946984 17.555002
C 29.799036 0.903986 17.523017
C 28.831040 -0.272037 16.908041
C 29.255015 0.802037 14.538989
C 30.770032 1.554992 12.956027
C 30.796988 1.937958 15.211988
C 33.847048 -0.643011 11.073973
C 34.502019 1.082020 10.072003
C 33.399031 1.158958 9.309030
C 32.437002 0.461024 9.511041
C 28.145034 0.661969 8.884956
C 28.851987 1.446041 8.516964
C 33.523035 2.128030 8.130000
C 34.329018 1.946986 7.445004
C 29.752978 1.304970 9.110989
C 36.449990 -0.937041 11.150992
C 34.518973 0.168042 11.227007
C 36.012029 -0.082043 11.369986
C 35.520966 0.270040 4.281999
C 40.823039 1.963959 11.024042
C 36.464971 1.829031 11.916023
C 36.630990 1.239046 10.991985
C 37.553030 1.200041 10.948042
C 36.861008 1.437981 6.194973
C 35.225973 1.305012 4.405989
C 33.814977 1.317963 2.852038
C 34.254029 1.931990 3.621973
C 36.741972 2.820960 1.974019
C 36.971996 3.829996 2.248953
C 35.621013 3.421980 5.572953
C 36.220015 4.925046 1.491998
C 35.425960 7.282954 1.842990
C 35.215965 4.451044 1.494012
C 29.227964 1.496029 7.037040
C 28.068968 1.655976 6.231998
C 31.496035 2.274010 3.037978
C 30.073983 2.151954 1.156005
C 30.520038 2.576003 5.235004
C 27.842015 3.087025 -1.402997
C 28.020035 2.060026 -1.684008
C 29.908980 0.978975 -2.059014
C 30.282978 1.333995 -2.995013
C 31.390977 3.996997 -1.293036
C 31.434997 4.424970 -7.542969
C 31.756994 1.097043 -3.198988
C 29.772988 0.876996 -3.720969
C 30.223961 2.852036 -3.086014
C 29.269997 3.085993 -3.515010
C 30.328014 6.552961 -10.667015
C 27.680952 5.764038 -9.848032
C 30.860974 7.064037 -12.331975
C 30.881002 7.340953 -11.279969
C 30.565003 5.427008 -4.119969
C 31.435042 4.575951 -4.301026
C 33.160028 6.693039 -11.916961
C 34.189021 6.619981 -11.585034
C 33.064015 7.390977 -12.752031
C 34.688984 7.248048 -4.538002
C 36.104050 6.752973 -2.502005
C 33.391971 6.255964 -9.245000
C 32.719004 5.717989 -12.170019
C 32.141015 5.229979 -9.918018
C 31.798982 5.589003 -7.245963
C 33.912993 4.636976 -3.324992
C 33.270973 2.432975 -3.654982
C 31.884997 0.245042 -3.473023
C 32.442012 2.083974 -5.128983
C 32.836991 4.055036 -5.769952
C 34.757015 4.929008 -4.809024
