328
Exposed_atoms
C 5.658977 6.904997 12.820964
C 9.683984 15.686007 11.138040
C 18.866997 13.638962 16.182037
C 17.334027 10.956020 18.691031
C 12.702966 4.973005 10.746039
C 5.007026 9.480962 -5.280046
C 3.157991 0.529974 -1.141044
C 2.558956 9.013964 1.648996
C 5.347013 0.839980 9.113953
C 4.295003 3.018008 14.172031
C 4.639024 0.610982 14.417017
C 3.766004 9.714950 11.186021
C 9.802014 14.456032 14.996010
C 3.859049 17.430986 6.821963
C 5.212001 15.936016 2.349955
C 2.842989 18.272960 5.855998
C 1.140033 16.882976 1.664047
C 2.624036 16.596983 -0.161977
C 1.159987 12.978993 1.181004
C 3.675019 13.185984 -4.693010
C 3.160991 13.668024 -3.220005
C 19.334015 12.828970 4.463000
C 21.142993 15.478041 6.427025
C 10.828046 16.219952 2.249049
C 21.750002 17.207966 7.423959
C 12.726013 16.848971 2.787034
C 17.638040 19.773031 7.542983
C 12.732985 15.675960 11.780970
C 12.068013 15.821014 12.501038
C 12.267045 14.962970 19.264997
C 15.785954 15.626019 14.825989
C 24.138959 13.337958 13.409991
C 24.283980 13.400957 10.708995
C 13.312033 12.750027 20.512984
C 17.792025 10.118966 18.280044
C 12.152971 -0.407036 15.338000
C 11.185041 -0.515995 15.141952
C 10.882028 1.527039 14.846039
C 11.028002 -1.339047 14.609031
C 13.600971 7.321990 8.202005
C 12.142997 5.571042 8.034977
C 10.793046 9.491041 -2.899039
C 12.539012 6.931974 6.158017
C 3.883983 1.687005 -3.677006
C 3.570960 -0.314026 -2.476974
C 3.393039 2.475970 -2.334960
C 2.702973 4.639030 -6.500967
C 3.328952 4.794965 -4.542961
C 2.136991 4.048990 -3.052978
C 2.421046 4.940980 -3.407997
C 0.704977 5.137964 -5.925027
C 1.222989 5.694034 -3.993019
C 0.358010 5.220982 -3.732030
C 1.173032 6.628965 -3.588003
C 1.158021 6.701981 -5.807040
C 3.259983 7.045049 -7.421993
C 3.572997 6.540038 -6.321979
C 1.357976 5.765980 -5.471981
C 4.396971 4.014008 -4.619960
C 5.738026 5.559969 -2.408972
C 7.954022 6.571970 -1.529020
C 4.564971 7.047008 -5.559040
C 6.227952 5.900964 -3.507027
C 5.863046 3.051969 -3.496026
C 5.794020 0.140998 -3.589028
C 4.988022 3.754966 -5.686988
C 3.907043 0.096987 -1.634024
C 6.625999 -0.050012 -2.196979
C 6.128966 0.606042 -2.768027
C 6.748968 1.344014 -3.037983
C 5.258038 1.613018 -1.174970
C 6.115990 3.210046 1.914985
C 6.239986 3.143997 0.683982
C 4.338989 -0.594975 -1.063027
C 7.901990 4.216959 2.238992
C 7.369964 6.507015 -0.731023
C 7.542992 5.666022 -0.235957
C 3.199950 7.147031 -1.102970
C 2.946964 3.816986 -0.188979
C 1.920957 6.189975 0.877967
C 2.502961 2.559954 3.367967
C 1.383983 1.825954 1.805992
C 0.798971 2.602975 2.021034
C 0.931010 0.976048 2.060991
C 1.598952 1.818986 0.832967
C 3.458028 0.053019 2.180952
C 3.173952 0.532995 3.005020
C 2.417005 0.056001 3.441002
C 1.567038 2.613003 8.165004
C 1.802007 3.734961 8.610007
C 2.983966 3.240040 6.295999
C 3.939026 0.620963 3.635967
C 5.213038 2.015980 5.557025
C 5.382040 2.312973 6.773050
C 5.405973 -0.152988 7.818989
C 7.694958 1.966007 3.996993
C 7.165977 1.248995 6.912972
C 5.908042 0.461967 8.399962
C 6.989983 -0.271997 9.012033
C 5.050015 1.358015 11.936970
C 7.836997 -0.406030 12.783031
C 7.339997 5.120952 15.995968
C 3.757966 1.031963 14.207969
C 3.259042 1.210951 15.053974
C 3.224050 0.425973 13.620995
C 1.930963 2.385987 13.232010
C 2.715974 2.891037 12.869025
C 2.745039 2.784002 11.874007
C 1.393975 4.251984 9.767040
C 2.615999 3.861002 13.094002
C 4.652031 5.943968 10.809966
C 7.222959 5.833036 16.665978
C 6.274031 5.220014 15.031041
C 7.313006 4.224986 16.402033
C 6.021970 6.976960 11.890993
C 2.876998 7.611969 7.373022
C 3.536011 5.001047 4.617031
C 2.048959 5.282044 7.248008
C -3.096986 7.056958 5.457995
C -0.505014 6.771013 4.988994
C -1.811974 11.277956 5.832019
C -2.496044 9.329044 5.673010
C -1.547039 10.337011 5.645046
C -3.448975 9.529958 5.860951
C -2.078984 8.031010 5.430014
C -0.800985 7.704983 5.156022
C -0.203017 10.043999 5.353952
C 0.193020 8.750020 5.100011
C 7.767980 9.639004 16.156985
C 6.715019 10.542963 14.033012
C 7.338017 9.785980 14.113975
C 6.870039 8.921024 14.144965
C 2.199007 9.367955 9.201023
C 0.286002 10.631980 8.544967
C 3.609044 10.505002 10.229992
C 1.134014 16.660009 7.118024
C 2.645964 18.309002 7.477978
C 3.984004 11.763995 10.241000
C 1.672024 14.132023 7.434007
C 0.946963 14.111975 8.468026
C 3.063008 15.522973 8.094032
C 4.500035 13.301009 11.481030
C 4.532982 11.839048 12.206016
C 4.768977 12.336029 11.360017
C 7.037038 12.749965 11.954013
C 7.581011 13.949003 8.944010
C 6.255044 12.242951 11.106050
C 4.528031 13.421977 8.025003
C 4.696022 13.907978 6.881971
C 7.359002 14.797030 6.690963
C 6.880002 14.615049 5.829983
C 0.715038 12.044972 6.657014
C 6.409045 15.447983 5.534977
C 2.913960 17.739041 6.699978
C -0.210048 12.399038 6.853968
C 1.986036 16.519993 6.613969
C 1.620963 13.189967 6.510986
C 1.664017 16.221031 5.229990
C 0.400043 14.394994 1.483018
C 4.781976 16.166038 3.495041
C -0.054046 16.188995 0.793998
C 0.902969 13.864021 0.810996
C 0.756008 16.760967 0.756974
C 0.545979 17.639042 0.344985
C 1.814978 16.048015 -0.128993
C 4.021960 15.655993 -3.921050
C 1.434022 15.904980 -1.021021
C 4.676032 14.893023 -3.995975
C 0.374974 13.758014 -0.023040
C 1.286044 11.310959 -1.780978
C 3.963963 13.567032 -3.810983
C 3.237014 11.212003 -4.108961
C 4.180986 9.438028 -4.261994
C 2.051010 9.144028 -2.622970
C 0.486012 11.833014 4.594016
C 6.344974 7.987997 -5.876011
C 5.218979 8.322022 -7.009033
C 5.365963 8.190985 -6.018009
C 5.535019 10.509970 -5.729996
C 7.727989 13.296981 -0.920980
C 5.108024 14.935979 -4.904955
C 6.945012 13.312010 -3.256031
C 6.483987 15.530992 -3.203011
C 5.702994 14.968958 -2.920034
C 5.316018 15.350955 -2.075951
C 5.805039 17.769970 0.654020
C 6.605024 17.695032 1.246012
C 7.434969 17.804023 0.703011
C 7.211987 15.333958 0.966043
C 6.568978 18.401970 1.950015
C 7.213981 16.364049 2.727017
C 15.472022 18.332044 7.022994
C 13.168021 18.006006 6.945034
C 11.490025 15.772966 7.037994
C 11.525994 17.219988 4.823044
C 13.787962 17.167011 3.989021
C 13.131040 16.517006 3.628962
C 9.732046 16.846982 3.283040
C 10.150978 16.023985 2.938013
C 13.547031 15.626050 3.497995
C 9.904958 14.079959 0.166012
C 10.349004 12.125998 -0.907049
C 12.416008 13.225038 0.681027
C 11.940954 12.170006 0.390961
C 10.268026 15.185042 4.856999
C 22.054982 14.700990 7.031991
C 24.039981 13.257036 6.499038
C 23.245951 12.697014 6.275049
C 20.137979 15.023007 5.877984
C 23.074952 12.730960 5.292964
C 17.046951 14.098982 3.624992
C 16.944026 12.070014 3.646047
C 16.967047 12.783993 4.337970
C 17.097035 16.659995 4.970004
C 17.664050 18.668961 5.805959
C 19.924954 18.042046 4.948970
C 18.229992 18.643030 3.834009
C 20.592963 17.742039 3.945038
C 18.668964 20.796032 3.897968
C 18.635019 18.861019 4.738032
C 17.647995 21.732994 5.613989
C 18.945022 20.364025 4.783026
C 19.955980 20.501986 4.858014
C 20.171986 17.729955 6.217014
C 22.124956 17.222011 5.836030
C 16.912951 17.550043 5.818976
C 18.238044 20.936986 5.907959
C 16.407047 20.130042 6.531013
C 17.370967 19.899956 6.595957
C 21.452049 16.969001 6.512977
C 18.892997 21.344019 6.596039
C 18.994997 15.903038 9.340961
C 23.131011 13.601035 11.593039
C 17.755000 15.108002 10.044002
C 17.290958 17.681013 8.518995
C 9.499951 15.234963 8.418973
C 11.074987 16.429987 9.799028
C 15.592018 16.974041 9.433986
C 15.173993 17.873979 9.495952
C 13.002961 16.536030 11.371035
C 8.908990 16.152002 10.720034
C 10.040976 16.221028 11.897986
C 8.740039 15.265035 15.268997
C 11.045041 14.674956 15.609996
C 11.143000 15.440991 16.254977
C 17.636975 15.485967 16.149954
C 17.299982 14.880971 13.280986
C 16.068990 16.751028 10.277999
C 20.356978 14.317043 11.947987
C 22.945005 14.570963 11.650024
C 17.075989 14.657986 16.144978
C 16.591025 14.580006 17.016957
C 14.109037 14.302956 18.212046
C 17.728004 12.123968 17.883952
C 12.933005 12.736983 19.580028
C 13.140012 14.094017 18.957983
C 11.942981 12.562042 19.645018
C 8.808047 13.289044 13.581973
C 19.827010 12.110011 11.642025
C 21.893971 13.435036 9.436040
C 22.528971 13.080983 13.530039
C 23.339951 12.934999 12.962010
C 23.487032 11.952981 12.834979
C 16.266967 8.185989 14.921028
C 19.533008 11.717994 14.361971
C 18.036986 10.292041 12.309033
C 15.170959 6.533050 14.279950
C 8.229991 9.957031 15.344951
C 8.522012 10.895011 15.437015
C 12.935995 11.227033 17.470012
C 11.719956 11.039997 17.427960
C 13.414005 10.784991 19.435951
C 15.035999 11.747017 18.715013
C 17.787042 11.046980 19.621980
C 16.651988 11.368043 16.033036
C 14.341982 8.639992 15.421994
C 15.874956 10.687990 18.871018
C 15.434033 9.549989 19.165979
C 15.335976 7.757988 17.341022
C 15.190005 6.239014 16.764017
C 16.654980 6.957012 16.808034
C 15.679986 7.099028 16.682013
C 13.407028 3.298002 15.014955
C 10.660968 -0.543014 15.985046
C 11.981975 4.849002 15.886036
C 9.490049 7.519034 16.819042
C 9.420001 5.093017 15.897960
C 8.684979 0.626964 14.739031
C 8.880986 3.075042 14.358015
C 9.020982 -1.337997 13.419037
C 8.810991 -0.476989 12.968951
C 9.337015 -0.380021 12.130982
C 11.999996 3.984994 12.957038
C 11.251013 0.741017 13.475036
C 13.310999 5.852955 11.454969
C 16.093017 5.704954 14.038960
C 14.250996 4.709996 12.876953
C 13.733032 6.929014 11.026028
C 12.757973 6.608975 7.443018
C 14.993021 9.862046 7.443024
C 21.868963 11.386979 8.434962
C 19.084018 11.331991 6.608044
C 23.407951 11.754023 6.556997
C 22.068978 11.917994 10.764022
C 17.198993 10.929032 10.237011
C 9.657035 3.219026 9.852992
C 11.568977 3.129980 8.533021
C 11.226021 4.699011 7.244005
C 10.751988 3.606996 8.149031
C 10.258033 2.914013 7.584030
C 9.555019 2.856004 3.730043
C 10.013002 3.895027 3.323010
C 8.277030 1.794041 2.480042
C 8.145048 2.403989 3.239973
C 8.545960 7.473019 0.696973
C 8.659001 10.349976 -3.031992
C 9.212000 8.855956 -1.336980
C 9.536973 9.533017 -2.431024
C 11.951992 10.841036 3.306000
C 12.538991 11.069996 0.292017
C 13.365963 11.642967 3.479030
C 15.115002 11.555003 5.265035
C 18.149963 11.545998 6.303968
C 17.758998 10.731030 5.862966
C 10.276002 8.246024 2.588041
C 13.308019 9.439002 4.926007
C 11.731028 4.312962 6.501003
C 10.120045 1.955961 4.538969
