20
Exposed_atoms
C -1.529033 0.321973 -1.499002
C -0.125985 -1.073030 -0.834000
C -0.486002 0.311030 -1.129034
C -1.582974 -0.236986 1.367047
C -0.179981 -1.148998 3.297007
C -1.137981 1.516994 2.599023
C -1.894998 1.206991 3.352974
C -1.197998 2.625003 2.497035
C -1.467982 0.859991 1.249044
C -0.375993 2.223983 -0.086046
C -2.452967 1.181035 0.842997
C 0.585955 1.668022 -3.938025
C 0.458991 3.156974 -3.267954
C 1.671991 2.154016 -2.812953
C 0.391951 0.876982 -2.219008
C 0.234983 1.118997 3.028986
C 0.618984 0.906005 0.623037
C 1.844042 -0.308985 3.703021
C 0.614984 -0.115992 3.338960
C 1.262047 0.205993 -2.769030
